[root]
type=Root
children=system
eventq_index=0
full_system=false
sim_quantum=0
time_sync_enable=false
time_sync_period=100000000000
time_sync_spin_threshold=100000000

[system]
type=System
children=clk_domain cpu0 cpu1 cpu2 cpu3 cpu_clk_domain cpu_voltage_domain dvfs_handler l3bus l3cache mem_ctrls membus redirect_paths0 redirect_paths1 redirect_paths2 redirect_paths3 switch_cpus0 switch_cpus1 switch_cpus2 switch_cpus3 voltage_domain
byte_order=little
cache_line_size=64
eventq_index=0
exit_on_work_items=false
init_param=0
kvm_vm=Null
m5ops_base=4294901760
mem_mode=atomic
mem_ranges=0:17179869184
memories=system.mem_ctrls.dram
mmap_using_noreserve=false
multi_thread=false
num_work_ids=16
readfile=
redirect_paths=system.redirect_paths0 system.redirect_paths1 system.redirect_paths2 system.redirect_paths3
shared_backstore=
symbolfile=
thermal_components=
thermal_model=Null
work_begin_ckpt_count=0
work_begin_cpu_id_exit=-1
work_begin_exit_count=0
work_cpus_ckpt_count=0
work_end_ckpt_count=0
work_end_exit_count=0
work_item_id=-1
workload=Null
system_port=system.membus.cpu_side_ports[0]

[system.clk_domain]
type=SrcClockDomain
clock=333
domain_id=-1
eventq_index=0
init_perf_level=0
voltage_domain=system.voltage_domain

[system.cpu0]
type=AtomicSimpleCPU
children=dcache dtb icache interrupts isa itb l2bus l2cache mmucache power_state tracer workload
branchPred=Null
checker=Null
clk_domain=system.cpu_clk_domain
cpu_id=0
do_checkpoint_insts=true
do_statistics_insts=true
dtb=system.cpu0.dtb
eventq_index=0
function_trace=false
function_trace_start=0
interrupts=system.cpu0.interrupts
isa=system.cpu0.isa
itb=system.cpu0.itb
max_insts_all_threads=0
max_insts_any_thread=250000000
numThreads=1
power_gating_on_idle=false
power_model=
power_state=system.cpu0.power_state
progress_interval=3333333333
pwr_gating_latency=300
simpoint_start_insts=
simulate_data_stalls=false
simulate_inst_stalls=false
socket_id=0
switched_out=false
syscallRetryLatency=10000
system=system
tracer=system.cpu0.tracer
wait_for_remote_gdb=false
width=1
workload=system.cpu0.workload
dcache_port=system.cpu0.dcache.cpu_side
icache_port=system.cpu0.icache.cpu_side

[system.cpu0.dcache]
type=Cache
children=power_state replacement_policy tags
addr_ranges=0:18446744073709551615
assoc=8
clk_domain=system.cpu_clk_domain
clusivity=mostly_incl
compressor=Null
data_latency=1
demand_mshr_reserve=1
eventq_index=0
is_read_only=false
max_miss_count=0
mshrs=16
power_model=
power_state=system.cpu0.dcache.power_state
prefetch_on_access=false
prefetcher=Null
replacement_policy=system.cpu0.dcache.replacement_policy
response_latency=1
sequential_access=false
size=32768
system=system
tag_latency=1
tags=system.cpu0.dcache.tags
tgts_per_mshr=20
warmup_percentage=0
write_allocator=Null
write_buffers=8
writeback_clean=true
cpu_side=system.cpu0.dcache_port
mem_side=system.cpu0.l2bus.cpu_side_ports[1]

[system.cpu0.dcache.power_state]
type=PowerState
clk_gate_bins=20
clk_gate_max=1000000000000
clk_gate_min=1000
default_state=UNDEFINED
eventq_index=0
leaders=
possible_states=

[system.cpu0.dcache.replacement_policy]
type=LRURP
eventq_index=0

[system.cpu0.dcache.tags]
type=BaseSetAssoc
children=indexing_policy power_state
assoc=8
block_size=64
clk_domain=system.cpu_clk_domain
entry_size=64
eventq_index=0
indexing_policy=system.cpu0.dcache.tags.indexing_policy
power_model=
power_state=system.cpu0.dcache.tags.power_state
replacement_policy=system.cpu0.dcache.replacement_policy
sequential_access=false
size=32768
system=system
tag_latency=1
warmup_percentage=0

[system.cpu0.dcache.tags.indexing_policy]
type=SetAssociative
assoc=8
entry_size=64
eventq_index=0
size=32768

[system.cpu0.dcache.tags.power_state]
type=PowerState
clk_gate_bins=20
clk_gate_max=1000000000000
clk_gate_min=1000
default_state=UNDEFINED
eventq_index=0
leaders=
possible_states=

[system.cpu0.dtb]
type=X86TLB
children=walker
eventq_index=0
size=64
system=system
walker=system.cpu0.dtb.walker

[system.cpu0.dtb.walker]
type=X86PagetableWalker
children=power_state
clk_domain=system.cpu_clk_domain
eventq_index=0
num_squash_per_cycle=4
power_model=
power_state=system.cpu0.dtb.walker.power_state
system=system
port=system.cpu0.mmucache.mmubus.cpu_side_ports[1]

[system.cpu0.dtb.walker.power_state]
type=PowerState
clk_gate_bins=20
clk_gate_max=1000000000000
clk_gate_min=1000
default_state=UNDEFINED
eventq_index=0
leaders=
possible_states=

[system.cpu0.icache]
type=Cache
children=power_state replacement_policy tags
addr_ranges=0:18446744073709551615
assoc=8
clk_domain=system.cpu_clk_domain
clusivity=mostly_incl
compressor=Null
data_latency=1
demand_mshr_reserve=1
eventq_index=0
is_read_only=false
max_miss_count=0
mshrs=16
power_model=
power_state=system.cpu0.icache.power_state
prefetch_on_access=false
prefetcher=Null
replacement_policy=system.cpu0.icache.replacement_policy
response_latency=1
sequential_access=false
size=32768
system=system
tag_latency=1
tags=system.cpu0.icache.tags
tgts_per_mshr=20
warmup_percentage=0
write_allocator=Null
write_buffers=8
writeback_clean=true
cpu_side=system.cpu0.icache_port
mem_side=system.cpu0.l2bus.cpu_side_ports[0]

[system.cpu0.icache.power_state]
type=PowerState
clk_gate_bins=20
clk_gate_max=1000000000000
clk_gate_min=1000
default_state=UNDEFINED
eventq_index=0
leaders=
possible_states=

[system.cpu0.icache.replacement_policy]
type=LRURP
eventq_index=0

[system.cpu0.icache.tags]
type=BaseSetAssoc
children=indexing_policy power_state
assoc=8
block_size=64
clk_domain=system.cpu_clk_domain
entry_size=64
eventq_index=0
indexing_policy=system.cpu0.icache.tags.indexing_policy
power_model=
power_state=system.cpu0.icache.tags.power_state
replacement_policy=system.cpu0.icache.replacement_policy
sequential_access=false
size=32768
system=system
tag_latency=1
warmup_percentage=0

[system.cpu0.icache.tags.indexing_policy]
type=SetAssociative
assoc=8
entry_size=64
eventq_index=0
size=32768

[system.cpu0.icache.tags.power_state]
type=PowerState
clk_gate_bins=20
clk_gate_max=1000000000000
clk_gate_min=1000
default_state=UNDEFINED
eventq_index=0
leaders=
possible_states=

[system.cpu0.interrupts]
type=X86LocalApic
children=clk_domain
clk_domain=system.cpu0.interrupts.clk_domain
eventq_index=0
int_latency=1000
pio_latency=100000
system=system
int_requestor=system.membus.cpu_side_ports[2]
int_responder=system.membus.mem_side_ports[1]
pio=system.membus.mem_side_ports[0]

[system.cpu0.interrupts.clk_domain]
type=DerivedClockDomain
clk_divider=16
clk_domain=system.cpu_clk_domain
eventq_index=0

[system.cpu0.isa]
type=X86ISA
eventq_index=0

[system.cpu0.itb]
type=X86TLB
children=walker
eventq_index=0
size=64
system=system
walker=system.cpu0.itb.walker

[system.cpu0.itb.walker]
type=X86PagetableWalker
children=power_state
clk_domain=system.cpu_clk_domain
eventq_index=0
num_squash_per_cycle=4
power_model=
power_state=system.cpu0.itb.walker.power_state
system=system
port=system.cpu0.mmucache.mmubus.cpu_side_ports[0]

[system.cpu0.itb.walker.power_state]
type=PowerState
clk_gate_bins=20
clk_gate_max=1000000000000
clk_gate_min=1000
default_state=UNDEFINED
eventq_index=0
leaders=
possible_states=

[system.cpu0.l2bus]
type=CoherentXBar
children=power_state snoop_filter
clk_domain=system.cpu_clk_domain
eventq_index=0
forward_latency=0
frontend_latency=1
header_latency=1
max_outstanding_snoops=512
max_routing_table_size=512
point_of_coherency=false
point_of_unification=true
power_model=
power_state=system.cpu0.l2bus.power_state
response_latency=1
snoop_filter=system.cpu0.l2bus.snoop_filter
snoop_response_latency=1
system=system
use_default_range=false
width=32
cpu_side_ports=system.cpu0.icache.mem_side system.cpu0.dcache.mem_side system.cpu0.mmucache.mem_side
mem_side_ports=system.cpu0.l2cache.cpu_side

[system.cpu0.l2bus.power_state]
type=PowerState
clk_gate_bins=20
clk_gate_max=1000000000000
clk_gate_min=1000
default_state=UNDEFINED
eventq_index=0
leaders=
possible_states=

[system.cpu0.l2bus.snoop_filter]
type=SnoopFilter
eventq_index=0
lookup_latency=0
max_capacity=8388608
system=system

[system.cpu0.l2cache]
type=Cache
children=power_state replacement_policy tags
addr_ranges=0:18446744073709551615
assoc=16
clk_domain=system.cpu_clk_domain
clusivity=mostly_incl
compressor=Null
data_latency=10
demand_mshr_reserve=1
eventq_index=0
is_read_only=false
max_miss_count=0
mshrs=20
power_model=
power_state=system.cpu0.l2cache.power_state
prefetch_on_access=false
prefetcher=Null
replacement_policy=system.cpu0.l2cache.replacement_policy
response_latency=1
sequential_access=false
size=262144
system=system
tag_latency=10
tags=system.cpu0.l2cache.tags
tgts_per_mshr=12
warmup_percentage=0
write_allocator=Null
write_buffers=8
writeback_clean=true
cpu_side=system.cpu0.l2bus.mem_side_ports[0]
mem_side=system.l3bus.cpu_side_ports[0]

[system.cpu0.l2cache.power_state]
type=PowerState
clk_gate_bins=20
clk_gate_max=1000000000000
clk_gate_min=1000
default_state=UNDEFINED
eventq_index=0
leaders=
possible_states=

[system.cpu0.l2cache.replacement_policy]
type=LRURP
eventq_index=0

[system.cpu0.l2cache.tags]
type=BaseSetAssoc
children=indexing_policy power_state
assoc=16
block_size=64
clk_domain=system.cpu_clk_domain
entry_size=64
eventq_index=0
indexing_policy=system.cpu0.l2cache.tags.indexing_policy
power_model=
power_state=system.cpu0.l2cache.tags.power_state
replacement_policy=system.cpu0.l2cache.replacement_policy
sequential_access=false
size=262144
system=system
tag_latency=10
warmup_percentage=0

[system.cpu0.l2cache.tags.indexing_policy]
type=SetAssociative
assoc=16
entry_size=64
eventq_index=0
size=262144

[system.cpu0.l2cache.tags.power_state]
type=PowerState
clk_gate_bins=20
clk_gate_max=1000000000000
clk_gate_min=1000
default_state=UNDEFINED
eventq_index=0
leaders=
possible_states=

[system.cpu0.mmucache]
type=Cache
children=mmubus power_state replacement_policy tags
addr_ranges=0:18446744073709551615
assoc=4
clk_domain=system.cpu_clk_domain
clusivity=mostly_incl
compressor=Null
data_latency=1
demand_mshr_reserve=1
eventq_index=0
is_read_only=false
max_miss_count=0
mshrs=20
power_model=
power_state=system.cpu0.mmucache.power_state
prefetch_on_access=false
prefetcher=Null
replacement_policy=system.cpu0.mmucache.replacement_policy
response_latency=1
sequential_access=false
size=8192
system=system
tag_latency=1
tags=system.cpu0.mmucache.tags
tgts_per_mshr=12
warmup_percentage=0
write_allocator=Null
write_buffers=8
writeback_clean=true
cpu_side=system.cpu0.mmucache.mmubus.mem_side_ports[0]
mem_side=system.cpu0.l2bus.cpu_side_ports[2]

[system.cpu0.mmucache.mmubus]
type=CoherentXBar
children=power_state snoop_filter
clk_domain=system.cpu_clk_domain
eventq_index=0
forward_latency=0
frontend_latency=1
header_latency=1
max_outstanding_snoops=512
max_routing_table_size=512
point_of_coherency=false
point_of_unification=true
power_model=
power_state=system.cpu0.mmucache.mmubus.power_state
response_latency=1
snoop_filter=system.cpu0.mmucache.mmubus.snoop_filter
snoop_response_latency=1
system=system
use_default_range=false
width=32
cpu_side_ports=system.cpu0.itb.walker.port system.cpu0.dtb.walker.port
mem_side_ports=system.cpu0.mmucache.cpu_side

[system.cpu0.mmucache.mmubus.power_state]
type=PowerState
clk_gate_bins=20
clk_gate_max=1000000000000
clk_gate_min=1000
default_state=UNDEFINED
eventq_index=0
leaders=
possible_states=

[system.cpu0.mmucache.mmubus.snoop_filter]
type=SnoopFilter
eventq_index=0
lookup_latency=0
max_capacity=8388608
system=system

[system.cpu0.mmucache.power_state]
type=PowerState
clk_gate_bins=20
clk_gate_max=1000000000000
clk_gate_min=1000
default_state=UNDEFINED
eventq_index=0
leaders=
possible_states=

[system.cpu0.mmucache.replacement_policy]
type=LRURP
eventq_index=0

[system.cpu0.mmucache.tags]
type=BaseSetAssoc
children=indexing_policy power_state
assoc=4
block_size=64
clk_domain=system.cpu_clk_domain
entry_size=64
eventq_index=0
indexing_policy=system.cpu0.mmucache.tags.indexing_policy
power_model=
power_state=system.cpu0.mmucache.tags.power_state
replacement_policy=system.cpu0.mmucache.replacement_policy
sequential_access=false
size=8192
system=system
tag_latency=1
warmup_percentage=0

[system.cpu0.mmucache.tags.indexing_policy]
type=SetAssociative
assoc=4
entry_size=64
eventq_index=0
size=8192

[system.cpu0.mmucache.tags.power_state]
type=PowerState
clk_gate_bins=20
clk_gate_max=1000000000000
clk_gate_min=1000
default_state=UNDEFINED
eventq_index=0
leaders=
possible_states=

[system.cpu0.power_state]
type=PowerState
clk_gate_bins=20
clk_gate_max=1000000000000
clk_gate_min=1000
default_state=UNDEFINED
eventq_index=0
leaders=
possible_states=ON CLK_GATED OFF

[system.cpu0.tracer]
type=ExeTracer
eventq_index=0

[system.cpu0.workload]
type=Process
cmd=/opt/spec2017/benchspec/CPU/526.blender_r/run/run_base_refrate_gem5_se-m64.0000/blender_r_base.gem5_se-m64 /opt/spec2017/benchspec/CPU/526.blender_r/run/run_base_refrate_gem5_se-m64.0000/sh3_no_char.blend --render-output sh3_no_char_ --threads 1 -b -F RAWTGA -s 849 -e 849 -a
cwd=/opt/spec2017/benchspec/CPU/526.blender_r/run/run_base_refrate_gem5_se-m64.0000/
drivers=
egid=100
env=
errout=/home/user/PrIDE/performance/gem5/stats/pride_multiprogram_16GBmem_250Mn.SPEC2017.C4/RFM5.BR1.4C/blender/blender.err_0
euid=100
eventq_index=0
executable=/opt/spec2017/benchspec/CPU/526.blender_r/run/run_base_refrate_gem5_se-m64.0000/blender_r_base.gem5_se-m64
gid=100
input=cin
kvmInSE=false
maxStackSize=67108864
output=/home/user/PrIDE/performance/gem5/stats/pride_multiprogram_16GBmem_250Mn.SPEC2017.C4/RFM5.BR1.4C/blender/blender.out_0
pgid=100
pid=100
ppid=0
release=5.1.0
simpoint=0
system=system
uid=100
useArchPT=false

[system.cpu1]
type=AtomicSimpleCPU
children=dcache dtb icache interrupts isa itb l2bus l2cache mmucache power_state tracer workload
branchPred=Null
checker=Null
clk_domain=system.cpu_clk_domain
cpu_id=1
do_checkpoint_insts=true
do_statistics_insts=true
dtb=system.cpu1.dtb
eventq_index=0
function_trace=false
function_trace_start=0
interrupts=system.cpu1.interrupts
isa=system.cpu1.isa
itb=system.cpu1.itb
max_insts_all_threads=0
max_insts_any_thread=250000000
numThreads=1
power_gating_on_idle=false
power_model=
power_state=system.cpu1.power_state
progress_interval=3333333333
pwr_gating_latency=300
simpoint_start_insts=
simulate_data_stalls=false
simulate_inst_stalls=false
socket_id=0
switched_out=false
syscallRetryLatency=10000
system=system
tracer=system.cpu1.tracer
wait_for_remote_gdb=false
width=1
workload=system.cpu1.workload
dcache_port=system.cpu1.dcache.cpu_side
icache_port=system.cpu1.icache.cpu_side

[system.cpu1.dcache]
type=Cache
children=power_state replacement_policy tags
addr_ranges=0:18446744073709551615
assoc=8
clk_domain=system.cpu_clk_domain
clusivity=mostly_incl
compressor=Null
data_latency=1
demand_mshr_reserve=1
eventq_index=0
is_read_only=false
max_miss_count=0
mshrs=16
power_model=
power_state=system.cpu1.dcache.power_state
prefetch_on_access=false
prefetcher=Null
replacement_policy=system.cpu1.dcache.replacement_policy
response_latency=1
sequential_access=false
size=32768
system=system
tag_latency=1
tags=system.cpu1.dcache.tags
tgts_per_mshr=20
warmup_percentage=0
write_allocator=Null
write_buffers=8
writeback_clean=true
cpu_side=system.cpu1.dcache_port
mem_side=system.cpu1.l2bus.cpu_side_ports[1]

[system.cpu1.dcache.power_state]
type=PowerState
clk_gate_bins=20
clk_gate_max=1000000000000
clk_gate_min=1000
default_state=UNDEFINED
eventq_index=0
leaders=
possible_states=

[system.cpu1.dcache.replacement_policy]
type=LRURP
eventq_index=0

[system.cpu1.dcache.tags]
type=BaseSetAssoc
children=indexing_policy power_state
assoc=8
block_size=64
clk_domain=system.cpu_clk_domain
entry_size=64
eventq_index=0
indexing_policy=system.cpu1.dcache.tags.indexing_policy
power_model=
power_state=system.cpu1.dcache.tags.power_state
replacement_policy=system.cpu1.dcache.replacement_policy
sequential_access=false
size=32768
system=system
tag_latency=1
warmup_percentage=0

[system.cpu1.dcache.tags.indexing_policy]
type=SetAssociative
assoc=8
entry_size=64
eventq_index=0
size=32768

[system.cpu1.dcache.tags.power_state]
type=PowerState
clk_gate_bins=20
clk_gate_max=1000000000000
clk_gate_min=1000
default_state=UNDEFINED
eventq_index=0
leaders=
possible_states=

[system.cpu1.dtb]
type=X86TLB
children=walker
eventq_index=0
size=64
system=system
walker=system.cpu1.dtb.walker

[system.cpu1.dtb.walker]
type=X86PagetableWalker
children=power_state
clk_domain=system.cpu_clk_domain
eventq_index=0
num_squash_per_cycle=4
power_model=
power_state=system.cpu1.dtb.walker.power_state
system=system
port=system.cpu1.mmucache.mmubus.cpu_side_ports[1]

[system.cpu1.dtb.walker.power_state]
type=PowerState
clk_gate_bins=20
clk_gate_max=1000000000000
clk_gate_min=1000
default_state=UNDEFINED
eventq_index=0
leaders=
possible_states=

[system.cpu1.icache]
type=Cache
children=power_state replacement_policy tags
addr_ranges=0:18446744073709551615
assoc=8
clk_domain=system.cpu_clk_domain
clusivity=mostly_incl
compressor=Null
data_latency=1
demand_mshr_reserve=1
eventq_index=0
is_read_only=false
max_miss_count=0
mshrs=16
power_model=
power_state=system.cpu1.icache.power_state
prefetch_on_access=false
prefetcher=Null
replacement_policy=system.cpu1.icache.replacement_policy
response_latency=1
sequential_access=false
size=32768
system=system
tag_latency=1
tags=system.cpu1.icache.tags
tgts_per_mshr=20
warmup_percentage=0
write_allocator=Null
write_buffers=8
writeback_clean=true
cpu_side=system.cpu1.icache_port
mem_side=system.cpu1.l2bus.cpu_side_ports[0]

[system.cpu1.icache.power_state]
type=PowerState
clk_gate_bins=20
clk_gate_max=1000000000000
clk_gate_min=1000
default_state=UNDEFINED
eventq_index=0
leaders=
possible_states=

[system.cpu1.icache.replacement_policy]
type=LRURP
eventq_index=0

[system.cpu1.icache.tags]
type=BaseSetAssoc
children=indexing_policy power_state
assoc=8
block_size=64
clk_domain=system.cpu_clk_domain
entry_size=64
eventq_index=0
indexing_policy=system.cpu1.icache.tags.indexing_policy
power_model=
power_state=system.cpu1.icache.tags.power_state
replacement_policy=system.cpu1.icache.replacement_policy
sequential_access=false
size=32768
system=system
tag_latency=1
warmup_percentage=0

[system.cpu1.icache.tags.indexing_policy]
type=SetAssociative
assoc=8
entry_size=64
eventq_index=0
size=32768

[system.cpu1.icache.tags.power_state]
type=PowerState
clk_gate_bins=20
clk_gate_max=1000000000000
clk_gate_min=1000
default_state=UNDEFINED
eventq_index=0
leaders=
possible_states=

[system.cpu1.interrupts]
type=X86LocalApic
children=clk_domain
clk_domain=system.cpu1.interrupts.clk_domain
eventq_index=0
int_latency=1000
pio_latency=100000
system=system
int_requestor=system.membus.cpu_side_ports[3]
int_responder=system.membus.mem_side_ports[3]
pio=system.membus.mem_side_ports[2]

[system.cpu1.interrupts.clk_domain]
type=DerivedClockDomain
clk_divider=16
clk_domain=system.cpu_clk_domain
eventq_index=0

[system.cpu1.isa]
type=X86ISA
eventq_index=0

[system.cpu1.itb]
type=X86TLB
children=walker
eventq_index=0
size=64
system=system
walker=system.cpu1.itb.walker

[system.cpu1.itb.walker]
type=X86PagetableWalker
children=power_state
clk_domain=system.cpu_clk_domain
eventq_index=0
num_squash_per_cycle=4
power_model=
power_state=system.cpu1.itb.walker.power_state
system=system
port=system.cpu1.mmucache.mmubus.cpu_side_ports[0]

[system.cpu1.itb.walker.power_state]
type=PowerState
clk_gate_bins=20
clk_gate_max=1000000000000
clk_gate_min=1000
default_state=UNDEFINED
eventq_index=0
leaders=
possible_states=

[system.cpu1.l2bus]
type=CoherentXBar
children=power_state snoop_filter
clk_domain=system.cpu_clk_domain
eventq_index=0
forward_latency=0
frontend_latency=1
header_latency=1
max_outstanding_snoops=512
max_routing_table_size=512
point_of_coherency=false
point_of_unification=true
power_model=
power_state=system.cpu1.l2bus.power_state
response_latency=1
snoop_filter=system.cpu1.l2bus.snoop_filter
snoop_response_latency=1
system=system
use_default_range=false
width=32
cpu_side_ports=system.cpu1.icache.mem_side system.cpu1.dcache.mem_side system.cpu1.mmucache.mem_side
mem_side_ports=system.cpu1.l2cache.cpu_side

[system.cpu1.l2bus.power_state]
type=PowerState
clk_gate_bins=20
clk_gate_max=1000000000000
clk_gate_min=1000
default_state=UNDEFINED
eventq_index=0
leaders=
possible_states=

[system.cpu1.l2bus.snoop_filter]
type=SnoopFilter
eventq_index=0
lookup_latency=0
max_capacity=8388608
system=system

[system.cpu1.l2cache]
type=Cache
children=power_state replacement_policy tags
addr_ranges=0:18446744073709551615
assoc=16
clk_domain=system.cpu_clk_domain
clusivity=mostly_incl
compressor=Null
data_latency=10
demand_mshr_reserve=1
eventq_index=0
is_read_only=false
max_miss_count=0
mshrs=20
power_model=
power_state=system.cpu1.l2cache.power_state
prefetch_on_access=false
prefetcher=Null
replacement_policy=system.cpu1.l2cache.replacement_policy
response_latency=1
sequential_access=false
size=262144
system=system
tag_latency=10
tags=system.cpu1.l2cache.tags
tgts_per_mshr=12
warmup_percentage=0
write_allocator=Null
write_buffers=8
writeback_clean=true
cpu_side=system.cpu1.l2bus.mem_side_ports[0]
mem_side=system.l3bus.cpu_side_ports[1]

[system.cpu1.l2cache.power_state]
type=PowerState
clk_gate_bins=20
clk_gate_max=1000000000000
clk_gate_min=1000
default_state=UNDEFINED
eventq_index=0
leaders=
possible_states=

[system.cpu1.l2cache.replacement_policy]
type=LRURP
eventq_index=0

[system.cpu1.l2cache.tags]
type=BaseSetAssoc
children=indexing_policy power_state
assoc=16
block_size=64
clk_domain=system.cpu_clk_domain
entry_size=64
eventq_index=0
indexing_policy=system.cpu1.l2cache.tags.indexing_policy
power_model=
power_state=system.cpu1.l2cache.tags.power_state
replacement_policy=system.cpu1.l2cache.replacement_policy
sequential_access=false
size=262144
system=system
tag_latency=10
warmup_percentage=0

[system.cpu1.l2cache.tags.indexing_policy]
type=SetAssociative
assoc=16
entry_size=64
eventq_index=0
size=262144

[system.cpu1.l2cache.tags.power_state]
type=PowerState
clk_gate_bins=20
clk_gate_max=1000000000000
clk_gate_min=1000
default_state=UNDEFINED
eventq_index=0
leaders=
possible_states=

[system.cpu1.mmucache]
type=Cache
children=mmubus power_state replacement_policy tags
addr_ranges=0:18446744073709551615
assoc=4
clk_domain=system.cpu_clk_domain
clusivity=mostly_incl
compressor=Null
data_latency=1
demand_mshr_reserve=1
eventq_index=0
is_read_only=false
max_miss_count=0
mshrs=20
power_model=
power_state=system.cpu1.mmucache.power_state
prefetch_on_access=false
prefetcher=Null
replacement_policy=system.cpu1.mmucache.replacement_policy
response_latency=1
sequential_access=false
size=8192
system=system
tag_latency=1
tags=system.cpu1.mmucache.tags
tgts_per_mshr=12
warmup_percentage=0
write_allocator=Null
write_buffers=8
writeback_clean=true
cpu_side=system.cpu1.mmucache.mmubus.mem_side_ports[0]
mem_side=system.cpu1.l2bus.cpu_side_ports[2]

[system.cpu1.mmucache.mmubus]
type=CoherentXBar
children=power_state snoop_filter
clk_domain=system.cpu_clk_domain
eventq_index=0
forward_latency=0
frontend_latency=1
header_latency=1
max_outstanding_snoops=512
max_routing_table_size=512
point_of_coherency=false
point_of_unification=true
power_model=
power_state=system.cpu1.mmucache.mmubus.power_state
response_latency=1
snoop_filter=system.cpu1.mmucache.mmubus.snoop_filter
snoop_response_latency=1
system=system
use_default_range=false
width=32
cpu_side_ports=system.cpu1.itb.walker.port system.cpu1.dtb.walker.port
mem_side_ports=system.cpu1.mmucache.cpu_side

[system.cpu1.mmucache.mmubus.power_state]
type=PowerState
clk_gate_bins=20
clk_gate_max=1000000000000
clk_gate_min=1000
default_state=UNDEFINED
eventq_index=0
leaders=
possible_states=

[system.cpu1.mmucache.mmubus.snoop_filter]
type=SnoopFilter
eventq_index=0
lookup_latency=0
max_capacity=8388608
system=system

[system.cpu1.mmucache.power_state]
type=PowerState
clk_gate_bins=20
clk_gate_max=1000000000000
clk_gate_min=1000
default_state=UNDEFINED
eventq_index=0
leaders=
possible_states=

[system.cpu1.mmucache.replacement_policy]
type=LRURP
eventq_index=0

[system.cpu1.mmucache.tags]
type=BaseSetAssoc
children=indexing_policy power_state
assoc=4
block_size=64
clk_domain=system.cpu_clk_domain
entry_size=64
eventq_index=0
indexing_policy=system.cpu1.mmucache.tags.indexing_policy
power_model=
power_state=system.cpu1.mmucache.tags.power_state
replacement_policy=system.cpu1.mmucache.replacement_policy
sequential_access=false
size=8192
system=system
tag_latency=1
warmup_percentage=0

[system.cpu1.mmucache.tags.indexing_policy]
type=SetAssociative
assoc=4
entry_size=64
eventq_index=0
size=8192

[system.cpu1.mmucache.tags.power_state]
type=PowerState
clk_gate_bins=20
clk_gate_max=1000000000000
clk_gate_min=1000
default_state=UNDEFINED
eventq_index=0
leaders=
possible_states=

[system.cpu1.power_state]
type=PowerState
clk_gate_bins=20
clk_gate_max=1000000000000
clk_gate_min=1000
default_state=UNDEFINED
eventq_index=0
leaders=
possible_states=ON CLK_GATED OFF

[system.cpu1.tracer]
type=ExeTracer
eventq_index=0

[system.cpu1.workload]
type=Process
cmd=/opt/spec2017/benchspec/CPU/526.blender_r/run/run_base_refrate_gem5_se-m64.0000/blender_r_base.gem5_se-m64 /opt/spec2017/benchspec/CPU/526.blender_r/run/run_base_refrate_gem5_se-m64.0000/sh3_no_char.blend --render-output sh3_no_char_ --threads 1 -b -F RAWTGA -s 849 -e 849 -a
cwd=/opt/spec2017/benchspec/CPU/526.blender_r/run/run_base_refrate_gem5_se-m64.0000/
drivers=
egid=100
env=
errout=/home/user/PrIDE/performance/gem5/stats/pride_multiprogram_16GBmem_250Mn.SPEC2017.C4/RFM5.BR1.4C/blender/blender.err_1
euid=100
eventq_index=0
executable=/opt/spec2017/benchspec/CPU/526.blender_r/run/run_base_refrate_gem5_se-m64.0000/blender_r_base.gem5_se-m64
gid=100
input=cin
kvmInSE=false
maxStackSize=67108864
output=/home/user/PrIDE/performance/gem5/stats/pride_multiprogram_16GBmem_250Mn.SPEC2017.C4/RFM5.BR1.4C/blender/blender.out_1
pgid=100
pid=101
ppid=0
release=5.1.0
simpoint=0
system=system
uid=100
useArchPT=false

[system.cpu2]
type=AtomicSimpleCPU
children=dcache dtb icache interrupts isa itb l2bus l2cache mmucache power_state tracer workload
branchPred=Null
checker=Null
clk_domain=system.cpu_clk_domain
cpu_id=2
do_checkpoint_insts=true
do_statistics_insts=true
dtb=system.cpu2.dtb
eventq_index=0
function_trace=false
function_trace_start=0
interrupts=system.cpu2.interrupts
isa=system.cpu2.isa
itb=system.cpu2.itb
max_insts_all_threads=0
max_insts_any_thread=250000000
numThreads=1
power_gating_on_idle=false
power_model=
power_state=system.cpu2.power_state
progress_interval=3333333333
pwr_gating_latency=300
simpoint_start_insts=
simulate_data_stalls=false
simulate_inst_stalls=false
socket_id=0
switched_out=false
syscallRetryLatency=10000
system=system
tracer=system.cpu2.tracer
wait_for_remote_gdb=false
width=1
workload=system.cpu2.workload
dcache_port=system.cpu2.dcache.cpu_side
icache_port=system.cpu2.icache.cpu_side

[system.cpu2.dcache]
type=Cache
children=power_state replacement_policy tags
addr_ranges=0:18446744073709551615
assoc=8
clk_domain=system.cpu_clk_domain
clusivity=mostly_incl
compressor=Null
data_latency=1
demand_mshr_reserve=1
eventq_index=0
is_read_only=false
max_miss_count=0
mshrs=16
power_model=
power_state=system.cpu2.dcache.power_state
prefetch_on_access=false
prefetcher=Null
replacement_policy=system.cpu2.dcache.replacement_policy
response_latency=1
sequential_access=false
size=32768
system=system
tag_latency=1
tags=system.cpu2.dcache.tags
tgts_per_mshr=20
warmup_percentage=0
write_allocator=Null
write_buffers=8
writeback_clean=true
cpu_side=system.cpu2.dcache_port
mem_side=system.cpu2.l2bus.cpu_side_ports[1]

[system.cpu2.dcache.power_state]
type=PowerState
clk_gate_bins=20
clk_gate_max=1000000000000
clk_gate_min=1000
default_state=UNDEFINED
eventq_index=0
leaders=
possible_states=

[system.cpu2.dcache.replacement_policy]
type=LRURP
eventq_index=0

[system.cpu2.dcache.tags]
type=BaseSetAssoc
children=indexing_policy power_state
assoc=8
block_size=64
clk_domain=system.cpu_clk_domain
entry_size=64
eventq_index=0
indexing_policy=system.cpu2.dcache.tags.indexing_policy
power_model=
power_state=system.cpu2.dcache.tags.power_state
replacement_policy=system.cpu2.dcache.replacement_policy
sequential_access=false
size=32768
system=system
tag_latency=1
warmup_percentage=0

[system.cpu2.dcache.tags.indexing_policy]
type=SetAssociative
assoc=8
entry_size=64
eventq_index=0
size=32768

[system.cpu2.dcache.tags.power_state]
type=PowerState
clk_gate_bins=20
clk_gate_max=1000000000000
clk_gate_min=1000
default_state=UNDEFINED
eventq_index=0
leaders=
possible_states=

[system.cpu2.dtb]
type=X86TLB
children=walker
eventq_index=0
size=64
system=system
walker=system.cpu2.dtb.walker

[system.cpu2.dtb.walker]
type=X86PagetableWalker
children=power_state
clk_domain=system.cpu_clk_domain
eventq_index=0
num_squash_per_cycle=4
power_model=
power_state=system.cpu2.dtb.walker.power_state
system=system
port=system.cpu2.mmucache.mmubus.cpu_side_ports[1]

[system.cpu2.dtb.walker.power_state]
type=PowerState
clk_gate_bins=20
clk_gate_max=1000000000000
clk_gate_min=1000
default_state=UNDEFINED
eventq_index=0
leaders=
possible_states=

[system.cpu2.icache]
type=Cache
children=power_state replacement_policy tags
addr_ranges=0:18446744073709551615
assoc=8
clk_domain=system.cpu_clk_domain
clusivity=mostly_incl
compressor=Null
data_latency=1
demand_mshr_reserve=1
eventq_index=0
is_read_only=false
max_miss_count=0
mshrs=16
power_model=
power_state=system.cpu2.icache.power_state
prefetch_on_access=false
prefetcher=Null
replacement_policy=system.cpu2.icache.replacement_policy
response_latency=1
sequential_access=false
size=32768
system=system
tag_latency=1
tags=system.cpu2.icache.tags
tgts_per_mshr=20
warmup_percentage=0
write_allocator=Null
write_buffers=8
writeback_clean=true
cpu_side=system.cpu2.icache_port
mem_side=system.cpu2.l2bus.cpu_side_ports[0]

[system.cpu2.icache.power_state]
type=PowerState
clk_gate_bins=20
clk_gate_max=1000000000000
clk_gate_min=1000